***
*ELEMENT,TYPE=CAX4I,ELSET=EPlate
**
 1,   1,   2, 102, 101
 2,   2,   3, 103, 102
 3,   3,   4, 104, 103
 4,   4,   5, 105, 104
 5,   5,   6, 106, 105
 6,   6,   7, 107, 106
 7,   7,   8, 108, 107
 8,   8,   9, 109, 108
 9,   9,  10, 110, 109
10,  10,  11, 111, 110
11,  11,  12, 112, 111
12,  12,  13, 113, 112
13,  13,  14, 114, 113
14,  14,  15, 115, 114
15,  15,  16, 116, 115
16,  16,  17, 117, 116
17,  17,  18, 118, 117
18,  18,  19, 119, 118
19,  19,  20, 120, 119
20,  20,  21, 121, 120
** ... 10 like lines cut
*Element, type=CAX4H
 101,  101,  102,  202,  201
 102,  102,  103,  203,  202
 103,  103,  104,  204,  203
 104,  104,  105,  205,  204
 105,  105,  106,  206,  205
 106,  106,  107,  207,  206
 107,  107,  108,  208,  207
 108,  108,  109,  209,  208
 109,  109,  110,  210,  209
 110,  110,  111,  211,  210
 111,  111,  112,  212,  211
 112,  112,  113,  213,  212
 113,  113,  114,  214,  213
 114,  114,  115,  215,  214
 115,  115,  116,  216,  215
 116,  116,  117,  217,  216
 117,  117,  118,  218,  217
 118,  118,  119,  219,  218
 119,  119,  120,  220,  219
 120,  120,  121,  221,  220
** ... 400 like lines cut
*Elset, elset=PLATE, generate
  1,  30,   1
*Elset, elset=RUBBER
  101,  102,  103,  104,  105,  106,  107,  108,  109,  110,  111,  112,  113,  114,  115,  116
  117,  118,  119,  120,  121,  122,  123,  124,  125,  126,  127,  128,  129,  130,  201,  202
  203,  204,  205,  206,  207,  208,  209,  210,  211,  212,  213,  214,  215,  216,  217,  218
  219,  220,  221,  222,  223,  224,  225,  226,  227,  228,  229,  230,  301,  302,  303,  304
  305,  306,  307,  308,  309,  310,  311,  312,  313,  314,  315,  316,  317,  318,  319,  320
  321,  322,  323,  324,  325,  326,  327,  328,  329,  330,  401,  402,  403,  404,  405,  406
  407,  408,  409,  410,  411,  412,  413,  414,  415,  416,  417,  418,  419,  420,  421,  422
  423,  424,  425,  426,  427,  428,  429,  430,  501,  502,  503,  504,  505,  506,  507,  508
  509,  510,  511,  512,  513,  514,  515,  516,  517,  518,  519,  520,  521,  522,  523,  524
  525,  526,  527,  528,  529,  530,  601,  602,  603,  604,  605,  606,  607,  608,  609,  610
  611,  612,  613,  614,  615,  616,  617,  618,  619,  620,  621,  622,  623,  624,  625,  626
  627,  628,  629,  630,  701,  702,  703,  704,  705,  706,  707,  708,  709,  710,  711,  712
  713,  714,  715,  716,  717,  718,  719,  720,  721,  722,  723,  724,  725,  726,  727,  728
  729,  730,  801,  802,  803,  804,  805,  806,  807,  808,  809,  810,  811,  812,  813,  814
  815,  816,  817,  818,  819,  820,  821,  822,  823,  824,  825,  826,  827,  828,  829,  830
  901,  902,  903,  904,  905,  906,  907,  908,  909,  910,  911,  912,  913,  914,  915,  916
  917,  918,  919,  920,  921,  922,  923,  924,  925,  926,  927,  928,  929,  930, 1001, 1002
 1003, 1004, 1005, 1006, 1007, 1008, 1009, 1010, 1011, 1012, 1013, 1014, 1015, 1016, 1017, 1018
 1019, 1020, 1021, 1022, 1023, 1024, 1025, 1026, 1027, 1028, 1029, 1030, 1101, 1102, 1103, 1104
 1105, 1106, 1107, 1108, 1109, 1110, 1111, 1112, 1113, 1114, 1115, 1116, 1117, 1118, 1119, 1120
** ... 7 like lines cut
** Section: Section-2-PLATE
*Solid Section, elset=PLATE, material=STEEL
,
** Section: Section-1-RUBBER
*Solid Section, elset=RUBBER, material=RUBBER
,
*End Part
**  
**
** ASSEMBLY
**
*Assembly, name=Assembly
**  
*Instance, name=PART-1-1, part=PART-1
*End Instance
**  
*Nset, nset=BOTTOM, instance=PART-1-1, generate
  1,  31,   1
*Nset, nset=LEFT, instance=PART-1-1, generate
    1,  1501,   100
*Nset, nset=MIDDLE, instance=PART-1-1, generate
 1501,  1531,     1
*Nset, nset=OUT, instance=PART-1-1
 1,
*Nset, nset=RIGHT, instance=PART-1-1, generate
   31,  1531,   100
*Nset, nset=RUBBER, instance=PART-1-1
    1,    2,    3,    4,    5,    6,    7,    8,    9,   10,   11,   12,   13,   14,   15,   16
   17,   18,   19,   20,   21,   22,   23,   24,   25,   26,   27,   28,   29,   30,   31,  101
  102,  103,  104,  105,  106,  107,  108,  109,  110,  111,  112,  113,  114,  115,  116,  117
  118,  119,  120,  121,  122,  123,  124,  125,  126,  127,  128,  129,  130,  131,  201,  202
  203,  204,  205,  206,  207,  208,  209,  210,  211,  212,  213,  214,  215,  216,  217,  218
  219,  220,  221,  222,  223,  224,  225,  226,  227,  228,  229,  230,  231,  301,  302,  303
  304,  305,  306,  307,  308,  309,  310,  311,  312,  313,  314,  315,  316,  317,  318,  319
  320,  321,  322,  323,  324,  325,  326,  327,  328,  329,  330,  331,  401,  402,  403,  404
  405,  406,  407,  408,  409,  410,  411,  412,  413,  414,  415,  416,  417,  418,  419,  420
  421,  422,  423,  424,  425,  426,  427,  428,  429,  430,  431,  501,  502,  503,  504,  505
  506,  507,  508,  509,  510,  511,  512,  513,  514,  515,  516,  517,  518,  519,  520,  521
  522,  523,  524,  525,  526,  527,  528,  529,  530,  531,  601,  602,  603,  604,  605,  606
  607,  608,  609,  610,  611,  612,  613,  614,  615,  616,  617,  618,  619,  620,  621,  622
  623,  624,  625,  626,  627,  628,  629,  630,  631,  701,  702,  703,  704,  705,  706,  707
  708,  709,  710,  711,  712,  713,  714,  715,  716,  717,  718,  719,  720,  721,  722,  723
  724,  725,  726,  727,  728,  729,  730,  731,  801,  802,  803,  804,  805,  806,  807,  808
  809,  810,  811,  812,  813,  814,  815,  816,  817,  818,  819,  820,  821,  822,  823,  824
  825,  826,  827,  828,  829,  830,  831,  901,  902,  903,  904,  905,  906,  907,  908,  909
  910,  911,  912,  913,  914,  915,  916,  917,  918,  919,  920,  921,  922,  923,  924,  925
  926,  927,  928,  929,  930,  931, 1001, 1002, 1003, 1004, 1005, 1006, 1007, 1008, 1009, 1010
** ... 11 like lines cut
*Elset, elset=_DISTFORCE-1_S1, internal, instance=PART-1-1, generate
  1,  30,   1
*Surface, type=ELEMENT, name=DISTFORCE-1
_DISTFORCE-1_S1, S1
*End Assembly
** 
** MATERIALS
** 
*Material, name=RUBBER
*Hyperelastic, test data input
*Biaxial Test Data
    89000., 0.02
   255000., 0.14
   503000., 0.42
   958000., 1.49
 1.703e+06, 2.75
 2.413e+06, 3.45
*Planar Test Data
    55000.,  0.069
   324000., 0.2828
   758000., 1.3862
 1.269e+06, 3.0345
 1.779e+06, 4.0621
*Uniaxial Test Data
 54000.,  0.038
152000., 0.1338
254000.,  0.221
362000.,  0.345
459000.,   0.46
583000., 0.6242
656000.,  0.851
730000., 1.4268
*Material, name=STEEL
*Elastic
 2e+11, 0.3
** ----------------------------------------------------------------
** 
** STEP: Step-1
** 
*Step, name=Step-1, nlgeom=YES
*Static
0.01, 1., 1e-05, 1.
** 
** BOUNDARY CONDITIONS
** 
** Name: Disp-BC-1 Type: Displacement/Rotation
*Boundary
MIDDLE, 2, 2
** 
** LOADS
** 
** Name: DISTFORCE-1   Type: Pressure
*Dsload
DISTFORCE-1, P, 500000.
** 
** OUTPUT REQUESTS
** 
*Restart, write, frequency=0
** 
** FIELD OUTPUT: F-Output-2
** 
*Output, field
*Element Output, directions=YES
NE, 
** 
** FIELD OUTPUT: F-Output-1
** 
*Output, field, variable=PRESELECT
** 
** HISTORY OUTPUT: H-Output-1
** 
*Output, history
*Node Output, nset=OUT
U1, U2, U3, UR1, UR2, UR3
*End Step
